* this file contains digital circuits written by SPICE, which are used by ADC design

* lib	: digital_lib abtract of sky130_fd_sc_*
* tech: Skywater 130nm

***  sky130_fd_sc_hd__ ***

.subckt sky130_fd_sc_hd__einvp_1 A TE VGND VNB VPB VPWR Z
X0 a_276_297# A Z VPB sky130_fd_pr__pfet_01v8_hvt w=1e+06u l=150000u
X1 VGND TE a_204_47# VNB sky130_fd_pr__nfet_01v8 w=650000u l=150000u
X2 a_27_47# TE VPWR VPB sky130_fd_pr__pfet_01v8_hvt w=420000u l=150000u
X3 a_204_47# A Z VNB sky130_fd_pr__nfet_01v8 w=650000u l=150000u
X4 VPWR a_27_47# a_276_297# VPB sky130_fd_pr__pfet_01v8_hvt w=1e+06u l=150000u
X5 a_27_47# TE VGND VNB sky130_fd_pr__nfet_01v8 w=420000u l=150000u
.ends

.subckt sky130_fd_sc_hd__conb_1 VGND VNB VPB VPWR HI LO
R0 HI VPWR sky130_fd_pr__res_generic_po w=480000u l=45000u
R1 VGND LO sky130_fd_pr__res_generic_po w=480000u l=45000u
.ends

.subckt sky130_fd_sc_hd__inv_2 A VGND VNB VPB VPWR Y
X0 Y A VGND VNB sky130_fd_pr__nfet_01v8 w=650000u l=150000u
X1 VPWR A Y VPB sky130_fd_pr__pfet_01v8_hvt w=1e+06u l=150000u
X2 VGND A Y VNB sky130_fd_pr__nfet_01v8 w=650000u l=150000u
X3 Y A VPWR VPB sky130_fd_pr__pfet_01v8_hvt w=1e+06u l=150000u
.ends

.subckt sky130_fd_sc_hd__clkbuf_1 A VGND VNB VPB VPWR X
X0 VGND A a_75_212# VNB sky130_fd_pr__nfet_01v8 w=520000u l=150000u
X1 X a_75_212# VPWR VPB sky130_fd_pr__pfet_01v8_hvt w=790000u l=150000u
X2 X a_75_212# VGND VNB sky130_fd_pr__nfet_01v8 w=520000u l=150000u
X3 VPWR A a_75_212# VPB sky130_fd_pr__pfet_01v8_hvt w=790000u l=150000u
.ends

.subckt sky130_fd_sc_hd__clkbuf_2 A VGND VNB VPB VPWR X
X0 a_27_47# A VPWR VPB sky130_fd_pr__pfet_01v8_hvt w=1e+06u l=150000u
X1 a_27_47# A VGND VNB sky130_fd_pr__nfet_01v8 w=420000u l=150000u
X2 X a_27_47# VPWR VPB sky130_fd_pr__pfet_01v8_hvt w=1e+06u l=150000u
X3 VPWR a_27_47# X VPB sky130_fd_pr__pfet_01v8_hvt w=1e+06u l=150000u
X4 X a_27_47# VGND VNB sky130_fd_pr__nfet_01v8 w=420000u l=150000u
X5 VGND a_27_47# X VNB sky130_fd_pr__nfet_01v8 w=420000u l=150000u
.ends

.subckt sky130_fd_sc_hd__clkbuf_4 A VGND VNB VPB VPWR X
X0 VPWR a_27_47# X VPB sky130_fd_pr__pfet_01v8_hvt w=1e+06u l=150000u
X1 X a_27_47# VPWR VPB sky130_fd_pr__pfet_01v8_hvt w=1e+06u l=150000u
X2 a_27_47# A VPWR VPB sky130_fd_pr__pfet_01v8_hvt w=1e+06u l=150000u
X3 a_27_47# A VGND VNB sky130_fd_pr__nfet_01v8 w=420000u l=150000u
X4 X a_27_47# VPWR VPB sky130_fd_pr__pfet_01v8_hvt w=1e+06u l=150000u
X5 VGND a_27_47# X VNB sky130_fd_pr__nfet_01v8 w=420000u l=150000u
X6 X a_27_47# VGND VNB sky130_fd_pr__nfet_01v8 w=420000u l=150000u
X7 VGND a_27_47# X VNB sky130_fd_pr__nfet_01v8 w=420000u l=150000u
X8 X a_27_47# VGND VNB sky130_fd_pr__nfet_01v8 w=420000u l=150000u
X9 VPWR a_27_47# X VPB sky130_fd_pr__pfet_01v8_hvt w=1e+06u l=150000u
.ends

.subckt sky130_fd_sc_hd__clkdlybuf4s15_1 A VGND VNB VPB VPWR X
X0 a_394_47# a_282_47# VPWR VPB sky130_fd_pr__pfet_01v8_hvt w=820000u l=150000u
X1 a_27_47# A VPWR VPB sky130_fd_pr__pfet_01v8_hvt w=1e+06u l=150000u
X2 VPWR a_27_47# a_282_47# VPB sky130_fd_pr__pfet_01v8_hvt w=820000u l=150000u
X3 a_27_47# A VGND VNB sky130_fd_pr__nfet_01v8 w=420000u l=150000u
X4 VGND a_394_47# X VNB sky130_fd_pr__nfet_01v8 w=420000u l=150000u
X5 VPWR a_394_47# X VPB sky130_fd_pr__pfet_01v8_hvt w=1e+06u l=150000u
X6 VGND a_27_47# a_282_47# VNB sky130_fd_pr__nfet_01v8 w=650000u l=150000u
X7 a_394_47# a_282_47# VGND VNB sky130_fd_pr__nfet_01v8 w=650000u l=150000u
.ends

.subckt sky130_fd_sc_hd__clkdlybuf4s15_2 A VGND VNB VPB VPWR X
X0 a_362_333# a_228_47# VGND VNB sky130_fd_pr__nfet_01v8 w=650000u l=150000u
X1 a_27_47# A VPWR VPB sky130_fd_pr__pfet_01v8_hvt w=1e+06u l=150000u
X2 VPWR a_27_47# a_228_47# VPB sky130_fd_pr__pfet_01v8_hvt w=820000u l=150000u
X3 VPWR a_362_333# X VPB sky130_fd_pr__pfet_01v8_hvt w=1e+06u l=150000u
X4 VGND a_27_47# a_228_47# VNB sky130_fd_pr__nfet_01v8 w=650000u l=150000u
X5 a_362_333# a_228_47# VPWR VPB sky130_fd_pr__pfet_01v8_hvt w=820000u l=150000u
X6 X a_362_333# VPWR VPB sky130_fd_pr__pfet_01v8_hvt w=1e+06u l=150000u
X7 VGND a_362_333# X VNB sky130_fd_pr__nfet_01v8 w=420000u l=150000u
X8 X a_362_333# VGND VNB sky130_fd_pr__nfet_01v8 w=420000u l=150000u
X9 a_27_47# A VGND VNB sky130_fd_pr__nfet_01v8 w=420000u l=150000u
.ends

.subckt sky130_fd_sc_hd__clkdlybuf4s18_1 A VGND VNB VPB VPWR X
X0 a_394_47# a_282_47# VPWR VPB sky130_fd_pr__pfet_01v8_hvt w=820000u l=180000u
X1 a_27_47# A VPWR VPB sky130_fd_pr__pfet_01v8_hvt w=1e+06u l=150000u
X2 a_27_47# A VGND VNB sky130_fd_pr__nfet_01v8 w=420000u l=150000u
X3 VGND a_394_47# X VNB sky130_fd_pr__nfet_01v8 w=420000u l=150000u
X4 VPWR a_394_47# X VPB sky130_fd_pr__pfet_01v8_hvt w=1e+06u l=150000u
X5 VPWR a_27_47# a_282_47# VPB sky130_fd_pr__pfet_01v8_hvt w=820000u l=180000u
X6 VGND a_27_47# a_282_47# VNB sky130_fd_pr__nfet_01v8 w=650000u l=180000u
X7 a_394_47# a_282_47# VGND VNB sky130_fd_pr__nfet_01v8 w=650000u l=180000u
.ends

.subckt sky130_fd_sc_hd__clkdlybuf4s25_1 A VGND VNB VPB VPWR X
X0 a_355_47# a_244_47# VPWR VPB sky130_fd_pr__pfet_01v8_hvt w=820000u l=250000u
X1 VPWR a_27_47# a_244_47# VPB sky130_fd_pr__pfet_01v8_hvt w=820000u l=250000u
X2 VPWR a_355_47# X VPB sky130_fd_pr__pfet_01v8_hvt w=1e+06u l=150000u
X3 a_27_47# A VPWR VPB sky130_fd_pr__pfet_01v8_hvt w=1e+06u l=150000u
X4 a_355_47# a_244_47# VGND VNB sky130_fd_pr__nfet_01v8 w=650000u l=250000u
X5 VGND a_27_47# a_244_47# VNB sky130_fd_pr__nfet_01v8 w=650000u l=250000u
X6 VGND a_355_47# X VNB sky130_fd_pr__nfet_01v8 w=420000u l=150000u
X7 a_27_47# A VGND VNB sky130_fd_pr__nfet_01v8 w=420000u l=150000u
.ends

.subckt sky130_fd_sc_hd__clkdlybuf4s50_1 A VGND VNB VPB VPWR X
X0 a_390_47# a_283_47# VGND VNB sky130_fd_pr__nfet_01v8 w=650000u l=500000u
X1 a_27_47# A VPWR VPB sky130_fd_pr__pfet_01v8_hvt w=1e+06u l=150000u
X2 VPWR a_27_47# a_283_47# VPB sky130_fd_pr__pfet_01v8_hvt w=820000u l=500000u
X3 VGND a_27_47# a_283_47# VNB sky130_fd_pr__nfet_01v8 w=650000u l=500000u
X4 VPWR a_390_47# X VPB sky130_fd_pr__pfet_01v8_hvt w=1e+06u l=150000u
X5 VGND a_390_47# X VNB sky130_fd_pr__nfet_01v8 w=420000u l=150000u
X6 a_390_47# a_283_47# VPWR VPB sky130_fd_pr__pfet_01v8_hvt w=820000u l=500000u
X7 a_27_47# A VGND VNB sky130_fd_pr__nfet_01v8 w=420000u l=150000u
.ends

.subckt sky130_fd_sc_hd__dlygate4sd1_1 A VGND VNB VPB VPWR X
X0 VPWR a_299_93# X VPB sky130_fd_pr__pfet_01v8_hvt w=1e+06u l=150000u
X1 a_299_93# a_193_47# VPWR VPB sky130_fd_pr__pfet_01v8_hvt w=420000u l=150000u
X2 a_299_93# a_193_47# VGND VNB sky130_fd_pr__nfet_01v8 w=420000u l=150000u
X3 a_27_47# A VPWR VPB sky130_fd_pr__pfet_01v8_hvt w=420000u l=150000u
X4 VGND a_299_93# X VNB sky130_fd_pr__nfet_01v8 w=650000u l=150000u
X5 VPWR a_27_47# a_193_47# VPB sky130_fd_pr__pfet_01v8_hvt w=420000u l=150000u
X6 VGND a_27_47# a_193_47# VNB sky130_fd_pr__nfet_01v8 w=420000u l=150000u
X7 a_27_47# A VGND VNB sky130_fd_pr__nfet_01v8 w=420000u l=150000u
.ends

.subckt sky130_fd_sc_hd__dlygate4sd2_1 A VGND VNB VPB VPWR X
X0 a_327_47# a_221_47# VGND VNB sky130_fd_pr__nfet_01v8 w=420000u l=180000u
X1 a_327_47# a_221_47# VPWR VPB sky130_fd_pr__pfet_01v8_hvt w=420000u l=180000u
X2 VGND a_327_47# X VNB sky130_fd_pr__nfet_01v8 w=650000u l=150000u
X3 VPWR a_49_47# a_221_47# VPB sky130_fd_pr__pfet_01v8_hvt w=420000u l=180000u
X4 a_49_47# A VGND VNB sky130_fd_pr__nfet_01v8 w=420000u l=150000u
X5 VGND a_49_47# a_221_47# VNB sky130_fd_pr__nfet_01v8 w=420000u l=180000u
X6 a_49_47# A VPWR VPB sky130_fd_pr__pfet_01v8_hvt w=420000u l=150000u
X7 VPWR a_327_47# X VPB sky130_fd_pr__pfet_01v8_hvt w=1e+06u l=150000u
.ends

.subckt sky130_fd_sc_hd__dlygate4sd3_1 A VGND VNB VPB VPWR X
X0 a_391_47# a_285_47# VGND VNB sky130_fd_pr__nfet_01v8 w=420000u l=500000u
X1 VPWR a_49_47# a_285_47# VPB sky130_fd_pr__pfet_01v8_hvt w=420000u l=500000u
X2 a_49_47# A VGND VNB sky130_fd_pr__nfet_01v8 w=420000u l=150000u
X3 VPWR a_391_47# X VPB sky130_fd_pr__pfet_01v8_hvt w=1e+06u l=150000u
X4 VGND a_391_47# X VNB sky130_fd_pr__nfet_01v8 w=650000u l=150000u
X5 VGND a_49_47# a_285_47# VNB sky130_fd_pr__nfet_01v8 w=420000u l=500000u
X6 a_391_47# a_285_47# VPWR VPB sky130_fd_pr__pfet_01v8_hvt w=420000u l=500000u
X7 a_49_47# A VPWR VPB sky130_fd_pr__pfet_01v8_hvt w=420000u l=150000u
.ends

.subckt sky130_fd_sc_hd__dlymetal6s2s_1 A VGND VNB VPB VPWR X
X0 a_381_47# X VPWR VPB sky130_fd_pr__pfet_01v8_hvt w=420000u l=150000u
X1 a_381_47# X VGND VNB sky130_fd_pr__nfet_01v8 w=420000u l=150000u
X2 a_664_47# a_558_47# VPWR VPB sky130_fd_pr__pfet_01v8_hvt w=420000u l=150000u
X3 a_62_47# A VGND VNB sky130_fd_pr__nfet_01v8 w=420000u l=150000u
X4 VPWR a_664_47# a_841_47# VPB sky130_fd_pr__pfet_01v8_hvt w=1e+06u l=150000u
X5 VGND a_381_47# a_558_47# VNB sky130_fd_pr__nfet_01v8 w=650000u l=150000u
X6 VGND a_62_47# X VNB sky130_fd_pr__nfet_01v8 w=650000u l=150000u
X7 VPWR a_62_47# X VPB sky130_fd_pr__pfet_01v8_hvt w=1e+06u l=150000u
X8 a_664_47# a_558_47# VGND VNB sky130_fd_pr__nfet_01v8 w=420000u l=150000u
X9 a_62_47# A VPWR VPB sky130_fd_pr__pfet_01v8_hvt w=420000u l=150000u
X10 VPWR a_381_47# a_558_47# VPB sky130_fd_pr__pfet_01v8_hvt w=1e+06u l=150000u
X11 VGND a_664_47# a_841_47# VNB sky130_fd_pr__nfet_01v8 w=650000u l=150000u
.ends

.subckt sky130_fd_sc_hd__xor2_1 A B VGND VNB VPB VPWR X
X0 a_35_297# A VGND VNB sky130_fd_pr__nfet_01v8 w=650000u l=150000u
X1 VGND B a_35_297# VNB sky130_fd_pr__nfet_01v8 w=650000u l=150000u
X2 X a_35_297# VGND VNB sky130_fd_pr__nfet_01v8 w=650000u l=150000u
X3 a_285_297# B VPWR VPB sky130_fd_pr__pfet_01v8_hvt w=1e+06u l=150000u
X4 VPWR A a_285_297# VPB sky130_fd_pr__pfet_01v8_hvt w=1e+06u l=150000u
X5 a_35_297# B a_117_297# VPB sky130_fd_pr__pfet_01v8_hvt w=1e+06u l=150000u
X6 a_117_297# A VPWR VPB sky130_fd_pr__pfet_01v8_hvt w=1e+06u l=150000u
X7 a_285_47# B X VNB sky130_fd_pr__nfet_01v8 w=650000u l=150000u
X8 a_285_297# a_35_297# X VPB sky130_fd_pr__pfet_01v8_hvt w=1e+06u l=150000u
X9 VGND A a_285_47# VNB sky130_fd_pr__nfet_01v8 w=650000u l=150000u
.ends

.subckt sky130_fd_sc_hd__xnor2_1 A B VGND VNB VPB VPWR Y
X0 VPWR A a_377_297# VPB sky130_fd_pr__pfet_01v8_hvt w=1e+06u l=150000u
X1 a_377_297# B Y VPB sky130_fd_pr__pfet_01v8_hvt w=1e+06u l=150000u
X2 Y a_47_47# VPWR VPB sky130_fd_pr__pfet_01v8_hvt w=1e+06u l=150000u
X3 a_129_47# A VGND VNB sky130_fd_pr__nfet_01v8 w=650000u l=150000u
X4 VGND B a_285_47# VNB sky130_fd_pr__nfet_01v8 w=650000u l=150000u
X5 a_47_47# B a_129_47# VNB sky130_fd_pr__nfet_01v8 w=650000u l=150000u
X6 VPWR B a_47_47# VPB sky130_fd_pr__pfet_01v8_hvt w=1e+06u l=150000u
X7 a_47_47# A VPWR VPB sky130_fd_pr__pfet_01v8_hvt w=1e+06u l=150000u
X8 VGND A a_285_47# VNB sky130_fd_pr__nfet_01v8 w=650000u l=150000u
X9 a_285_47# a_47_47# Y VNB sky130_fd_pr__nfet_01v8 w=650000u l=150000u
.ends

.subckt sky130_fd_sc_hd__dfxtp_1 CLK D VGND VNB VPB VPWR Q
X0 a_891_413# a_193_47# a_975_413# VPB sky130_fd_pr__pfet_01v8_hvt w=420000u l=150000u
X1 a_1059_315# a_891_413# VGND VNB sky130_fd_pr__nfet_01v8 w=650000u l=150000u
X2 a_466_413# a_27_47# a_561_413# VPB sky130_fd_pr__pfet_01v8_hvt w=420000u l=150000u
X3 a_634_159# a_27_47# a_891_413# VPB sky130_fd_pr__pfet_01v8_hvt w=420000u l=150000u
X4 a_381_47# a_193_47# a_466_413# VPB sky130_fd_pr__pfet_01v8_hvt w=420000u l=150000u
X5 VPWR D a_381_47# VPB sky130_fd_pr__pfet_01v8_hvt w=420000u l=150000u
X6 VPWR a_466_413# a_634_159# VPB sky130_fd_pr__pfet_01v8_hvt w=750000u l=150000u
X7 VGND a_466_413# a_634_159# VNB sky130_fd_pr__nfet_01v8 w=640000u l=150000u
X8 a_1017_47# a_1059_315# VGND VNB sky130_fd_pr__nfet_01v8 w=420000u l=150000u
X9 a_1059_315# a_891_413# VPWR VPB sky130_fd_pr__pfet_01v8_hvt w=1e+06u l=150000u
X10 a_561_413# a_634_159# VPWR VPB sky130_fd_pr__pfet_01v8_hvt w=420000u l=150000u
X11 VPWR a_1059_315# Q VPB sky130_fd_pr__pfet_01v8_hvt w=1e+06u l=150000u
X12 a_891_413# a_27_47# a_1017_47# VNB sky130_fd_pr__nfet_01v8 w=360000u l=150000u
X13 a_634_159# a_193_47# a_891_413# VNB sky130_fd_pr__nfet_01v8 w=360000u l=150000u
X14 a_592_47# a_634_159# VGND VNB sky130_fd_pr__nfet_01v8 w=420000u l=150000u
X15 a_466_413# a_193_47# a_592_47# VNB sky130_fd_pr__nfet_01v8 w=360000u l=150000u
X16 VGND a_27_47# a_193_47# VNB sky130_fd_pr__nfet_01v8 w=420000u l=150000u
X17 a_381_47# a_27_47# a_466_413# VNB sky130_fd_pr__nfet_01v8 w=360000u l=150000u
X18 a_27_47# CLK VGND VNB sky130_fd_pr__nfet_01v8 w=420000u l=150000u
X19 a_27_47# CLK VPWR VPB sky130_fd_pr__pfet_01v8_hvt w=640000u l=150000u
X20 VPWR a_27_47# a_193_47# VPB sky130_fd_pr__pfet_01v8_hvt w=640000u l=150000u
X21 VGND D a_381_47# VNB sky130_fd_pr__nfet_01v8 w=420000u l=150000u
X22 a_975_413# a_1059_315# VPWR VPB sky130_fd_pr__pfet_01v8_hvt w=420000u l=150000u
X23 VGND a_1059_315# Q VNB sky130_fd_pr__nfet_01v8 w=650000u l=150000u
.ends

.subckt sky130_fd_sc_hd__dfxbp_1 CLK D VGND VNB VPB VPWR Q Q_N
X0 a_1490_369# a_1059_315# VPWR VPB sky130_fd_pr__pfet_01v8_hvt w=640000u l=150000u
X1 a_891_413# a_193_47# a_975_413# VPB sky130_fd_pr__pfet_01v8_hvt w=420000u l=150000u
X2 a_466_413# a_27_47# a_561_413# VPB sky130_fd_pr__pfet_01v8_hvt w=420000u l=150000u
X3 a_634_159# a_27_47# a_891_413# VPB sky130_fd_pr__pfet_01v8_hvt w=420000u l=150000u
X4 VGND a_1490_369# Q_N VNB sky130_fd_pr__nfet_01v8 w=650000u l=150000u
X5 a_381_47# a_193_47# a_466_413# VPB sky130_fd_pr__pfet_01v8_hvt w=420000u l=150000u
X6 VPWR D a_381_47# VPB sky130_fd_pr__pfet_01v8_hvt w=420000u l=150000u
X7 VPWR a_466_413# a_634_159# VPB sky130_fd_pr__pfet_01v8_hvt w=750000u l=150000u
X8 VGND a_466_413# a_634_159# VNB sky130_fd_pr__nfet_01v8 w=640000u l=150000u
X9 a_1017_47# a_1059_315# VGND VNB sky130_fd_pr__nfet_01v8 w=420000u l=150000u
X10 a_561_413# a_634_159# VPWR VPB sky130_fd_pr__pfet_01v8_hvt w=420000u l=150000u
X11 a_891_413# a_27_47# a_1017_47# VNB sky130_fd_pr__nfet_01v8 w=360000u l=150000u
X12 VPWR a_1059_315# Q VPB sky130_fd_pr__pfet_01v8_hvt w=1e+06u l=150000u
X13 a_634_159# a_193_47# a_891_413# VNB sky130_fd_pr__nfet_01v8 w=360000u l=150000u
X14 a_592_47# a_634_159# VGND VNB sky130_fd_pr__nfet_01v8 w=420000u l=150000u
X15 VGND a_1059_315# Q VNB sky130_fd_pr__nfet_01v8 w=650000u l=150000u
X16 a_466_413# a_193_47# a_592_47# VNB sky130_fd_pr__nfet_01v8 w=360000u l=150000u
X17 VGND a_27_47# a_193_47# VNB sky130_fd_pr__nfet_01v8 w=420000u l=150000u
X18 a_381_47# a_27_47# a_466_413# VNB sky130_fd_pr__nfet_01v8 w=360000u l=150000u
X19 a_1059_315# a_891_413# VPWR VPB sky130_fd_pr__pfet_01v8_hvt w=1e+06u l=150000u
X20 a_27_47# CLK VGND VNB sky130_fd_pr__nfet_01v8 w=420000u l=150000u
X21 a_27_47# CLK VPWR VPB sky130_fd_pr__pfet_01v8_hvt w=640000u l=150000u
X22 a_1059_315# a_891_413# VGND VNB sky130_fd_pr__nfet_01v8 w=650000u l=150000u
X23 a_1490_369# a_1059_315# VGND VNB sky130_fd_pr__nfet_01v8 w=420000u l=150000u
X24 VPWR a_27_47# a_193_47# VPB sky130_fd_pr__pfet_01v8_hvt w=640000u l=150000u
X25 VGND D a_381_47# VNB sky130_fd_pr__nfet_01v8 w=420000u l=150000u
X26 a_975_413# a_1059_315# VPWR VPB sky130_fd_pr__pfet_01v8_hvt w=420000u l=150000u
X27 VPWR a_1490_369# Q_N VPB sky130_fd_pr__pfet_01v8_hvt w=1e+06u l=150000u
.ends

.subckt sky130_fd_sc_hd__dfxbp_2 CLK D VGND VNB VPB VPWR Q Q_N
X0 a_891_413# a_193_47# a_975_413# VPB sky130_fd_pr__pfet_01v8_hvt w=420000u l=150000u
X1 VGND a_1589_47# Q_N VNB sky130_fd_pr__nfet_01v8 w=650000u l=150000u
X2 a_466_413# a_27_47# a_561_413# VPB sky130_fd_pr__pfet_01v8_hvt w=420000u l=150000u
X3 a_634_159# a_27_47# a_891_413# VPB sky130_fd_pr__pfet_01v8_hvt w=420000u l=150000u
X4 a_1589_47# a_1059_315# VPWR VPB sky130_fd_pr__pfet_01v8_hvt w=640000u l=150000u
X5 VPWR a_1589_47# Q_N VPB sky130_fd_pr__pfet_01v8_hvt w=1e+06u l=150000u
X6 a_381_47# a_193_47# a_466_413# VPB sky130_fd_pr__pfet_01v8_hvt w=420000u l=150000u
X7 VPWR D a_381_47# VPB sky130_fd_pr__pfet_01v8_hvt w=420000u l=150000u
X8 VPWR a_466_413# a_634_159# VPB sky130_fd_pr__pfet_01v8_hvt w=750000u l=150000u
X9 VGND a_466_413# a_634_159# VNB sky130_fd_pr__nfet_01v8 w=640000u l=150000u
X10 a_1017_47# a_1059_315# VGND VNB sky130_fd_pr__nfet_01v8 w=420000u l=150000u
X11 Q a_1059_315# VGND VNB sky130_fd_pr__nfet_01v8 w=650000u l=150000u
X12 Q_N a_1589_47# VPWR VPB sky130_fd_pr__pfet_01v8_hvt w=1e+06u l=150000u
X13 a_1589_47# a_1059_315# VGND VNB sky130_fd_pr__nfet_01v8 w=420000u l=150000u
X14 Q a_1059_315# VPWR VPB sky130_fd_pr__pfet_01v8_hvt w=1e+06u l=150000u
X15 a_561_413# a_634_159# VPWR VPB sky130_fd_pr__pfet_01v8_hvt w=420000u l=150000u
X16 a_891_413# a_27_47# a_1017_47# VNB sky130_fd_pr__nfet_01v8 w=360000u l=150000u
X17 VPWR a_1059_315# Q VPB sky130_fd_pr__pfet_01v8_hvt w=1e+06u l=150000u
X18 a_634_159# a_193_47# a_891_413# VNB sky130_fd_pr__nfet_01v8 w=360000u l=150000u
X19 a_592_47# a_634_159# VGND VNB sky130_fd_pr__nfet_01v8 w=420000u l=150000u
X20 VGND a_1059_315# Q VNB sky130_fd_pr__nfet_01v8 w=650000u l=150000u
X21 a_466_413# a_193_47# a_592_47# VNB sky130_fd_pr__nfet_01v8 w=360000u l=150000u
X22 VGND a_27_47# a_193_47# VNB sky130_fd_pr__nfet_01v8 w=420000u l=150000u
X23 a_381_47# a_27_47# a_466_413# VNB sky130_fd_pr__nfet_01v8 w=360000u l=150000u
X24 a_1059_315# a_891_413# VPWR VPB sky130_fd_pr__pfet_01v8_hvt w=1e+06u l=150000u
X25 a_27_47# CLK VGND VNB sky130_fd_pr__nfet_01v8 w=420000u l=150000u
X26 a_27_47# CLK VPWR VPB sky130_fd_pr__pfet_01v8_hvt w=640000u l=150000u
X27 a_1059_315# a_891_413# VGND VNB sky130_fd_pr__nfet_01v8 w=650000u l=150000u
X28 Q_N a_1589_47# VGND VNB sky130_fd_pr__nfet_01v8 w=650000u l=150000u
X29 VPWR a_27_47# a_193_47# VPB sky130_fd_pr__pfet_01v8_hvt w=640000u l=150000u
X30 VGND D a_381_47# VNB sky130_fd_pr__nfet_01v8 w=420000u l=150000u
X31 a_975_413# a_1059_315# VPWR VPB sky130_fd_pr__pfet_01v8_hvt w=420000u l=150000u
.ends

******_____________ sky130_fd_sc_hs_____________******

.subckt sky130_fd_sc_hs__dfxbp_1 CLK D VGND VNB VPB VPWR Q Q_N
X0 VGND D a_420_503# VNB sky130_fd_pr__nfet_01v8_lvt w=420000u l=150000u
X1 VPWR a_543_447# a_701_463# VPB sky130_fd_pr__pfet_01v8 w=840000u l=150000u
X2 VGND a_1644_94# Q_N VNB sky130_fd_pr__nfet_01v8_lvt w=740000u l=150000u
X3 VPWR D a_420_503# VPB sky130_fd_pr__pfet_01v8 w=420000u l=150000u
X4 a_1158_482# a_1191_120# VPWR VPB sky130_fd_pr__pfet_01v8 w=420000u l=150000u
X5 a_543_447# a_205_368# a_713_102# VNB sky130_fd_pr__nfet_01v8_lvt w=420000u l=150000u
X6 a_713_102# a_701_463# VGND VNB sky130_fd_pr__nfet_01v8_lvt w=420000u l=150000u
X7 a_27_74# CLK VPWR VPB sky130_fd_pr__pfet_01v8 w=1.12e+06u l=150000u
X8 a_1644_94# a_1191_120# VPWR VPB sky130_fd_pr__pfet_01v8 w=840000u l=150000u
X9 VPWR a_1644_94# Q_N VPB sky130_fd_pr__pfet_01v8 w=1.12e+06u l=150000u
X10 a_543_447# a_27_74# a_650_508# VPB sky130_fd_pr__pfet_01v8 w=420000u l=150000u
X11 a_1191_120# a_1005_120# VPWR VPB sky130_fd_pr__pfet_01v8 w=1e+06u l=150000u
X12 VPWR a_1191_120# Q VPB sky130_fd_pr__pfet_01v8 w=1.12e+06u l=150000u
X13 VGND a_27_74# a_205_368# VNB sky130_fd_pr__nfet_01v8_lvt w=740000u l=150000u
X14 a_701_463# a_27_74# a_1005_120# VPB sky130_fd_pr__pfet_01v8 w=840000u l=150000u
X15 a_420_503# a_27_74# a_543_447# VNB sky130_fd_pr__nfet_01v8_lvt w=420000u l=150000u
X16 a_1005_120# a_27_74# a_1143_146# VNB sky130_fd_pr__nfet_01v8_lvt w=420000u l=150000u
X17 a_650_508# a_701_463# VPWR VPB sky130_fd_pr__pfet_01v8 w=420000u l=150000u
X18 a_1143_146# a_1191_120# VGND VNB sky130_fd_pr__nfet_01v8_lvt w=420000u l=150000u
X19 VGND a_1191_120# Q VNB sky130_fd_pr__nfet_01v8_lvt w=740000u l=150000u
X20 a_420_503# a_205_368# a_543_447# VPB sky130_fd_pr__pfet_01v8 w=420000u l=150000u
X21 a_1191_120# a_1005_120# VGND VNB sky130_fd_pr__nfet_01v8_lvt w=640000u l=150000u
X22 VPWR a_27_74# a_205_368# VPB sky130_fd_pr__pfet_01v8 w=1.12e+06u l=150000u
X23 a_1005_120# a_205_368# a_1158_482# VPB sky130_fd_pr__pfet_01v8 w=420000u l=150000u
X24 a_701_463# a_205_368# a_1005_120# VNB sky130_fd_pr__nfet_01v8_lvt w=550000u l=150000u
X25 a_1644_94# a_1191_120# VGND VNB sky130_fd_pr__nfet_01v8_lvt w=640000u l=150000u
X26 VGND a_543_447# a_701_463# VNB sky130_fd_pr__nfet_01v8_lvt w=550000u l=150000u
X27 a_27_74# CLK VGND VNB sky130_fd_pr__nfet_01v8_lvt w=740000u l=150000u
.ends

.subckt sky130_fd_sc_hs__dfxbp_2 CLK D VGND VNB VPB VPWR Q Q_N
X0 a_27_74# CLK VPWR VPB sky130_fd_pr__pfet_01v8 w=1.12e+06u l=150000u
X1 a_1248_128# a_1290_102# VGND VNB sky130_fd_pr__nfet_01v8_lvt w=420000u l=150000u
X2 VGND D a_451_503# VNB sky130_fd_pr__nfet_01v8_lvt w=420000u l=150000u
X3 a_753_284# a_206_368# a_1000_424# VNB sky130_fd_pr__nfet_01v8_lvt w=550000u l=150000u
X4 VPWR a_1835_368# Q_N VPB sky130_fd_pr__pfet_01v8 w=1.12e+06u l=150000u
X5 a_558_445# a_27_74# a_702_445# VPB sky130_fd_pr__pfet_01v8 w=420000u l=150000u
X6 VPWR a_1000_424# a_1290_102# VPB sky130_fd_pr__pfet_01v8 w=840000u l=150000u
X7 a_1000_424# a_27_74# a_1248_128# VNB sky130_fd_pr__nfet_01v8_lvt w=420000u l=150000u
X8 a_753_284# a_27_74# a_1000_424# VPB sky130_fd_pr__pfet_01v8 w=840000u l=150000u
X9 a_1290_102# a_1000_424# VPWR VPB sky130_fd_pr__pfet_01v8 w=840000u l=150000u
X10 Q_N a_1835_368# VPWR VPB sky130_fd_pr__pfet_01v8 w=1.12e+06u l=150000u
X11 a_558_445# a_206_368# a_717_102# VNB sky130_fd_pr__nfet_01v8_lvt w=420000u l=150000u
X12 VGND a_558_445# a_753_284# VNB sky130_fd_pr__nfet_01v8_lvt w=550000u l=150000u
X13 a_1835_368# a_1290_102# VGND VNB sky130_fd_pr__nfet_01v8_lvt w=640000u l=150000u
X14 a_702_445# a_753_284# VPWR VPB sky130_fd_pr__pfet_01v8 w=420000u l=150000u
X15 VGND a_27_74# a_206_368# VNB sky130_fd_pr__nfet_01v8_lvt w=740000u l=150000u
X16 a_1208_479# a_1290_102# VPWR VPB sky130_fd_pr__pfet_01v8 w=420000u l=150000u
X17 a_451_503# a_27_74# a_558_445# VNB sky130_fd_pr__nfet_01v8_lvt w=420000u l=150000u
X18 VPWR D a_451_503# VPB sky130_fd_pr__pfet_01v8 w=420000u l=150000u
X19 VPWR a_1290_102# Q VPB sky130_fd_pr__pfet_01v8 w=1.12e+06u l=150000u
X20 Q_N a_1835_368# VGND VNB sky130_fd_pr__nfet_01v8_lvt w=740000u l=150000u
X21 Q a_1290_102# VPWR VPB sky130_fd_pr__pfet_01v8 w=1.12e+06u l=150000u
X22 VGND a_1835_368# Q_N VNB sky130_fd_pr__nfet_01v8_lvt w=740000u l=150000u
X23 a_451_503# a_206_368# a_558_445# VPB sky130_fd_pr__pfet_01v8 w=420000u l=150000u
X24 a_1835_368# a_1290_102# VPWR VPB sky130_fd_pr__pfet_01v8 w=1e+06u l=150000u
X25 VPWR a_27_74# a_206_368# VPB sky130_fd_pr__pfet_01v8 w=1.12e+06u l=150000u
X26 VGND a_1290_102# Q VNB sky130_fd_pr__nfet_01v8_lvt w=740000u l=150000u
X27 VPWR a_558_445# a_753_284# VPB sky130_fd_pr__pfet_01v8 w=840000u l=150000u
X28 a_1290_102# a_1000_424# VGND VNB sky130_fd_pr__nfet_01v8_lvt w=740000u l=150000u
X29 a_1000_424# a_206_368# a_1208_479# VPB sky130_fd_pr__pfet_01v8 w=420000u l=150000u
X30 Q a_1290_102# VGND VNB sky130_fd_pr__nfet_01v8_lvt w=740000u l=150000u
X31 a_717_102# a_753_284# VGND VNB sky130_fd_pr__nfet_01v8_lvt w=420000u l=150000u
X32 a_27_74# CLK VGND VNB sky130_fd_pr__nfet_01v8_lvt w=740000u l=150000u
.ends

.subckt sky130_fd_sc_hs__dfxtp_1 CLK D VGND VNB VPB VPWR Q
X0 a_27_74# CLK VPWR VPB sky130_fd_pr__pfet_01v8 w=1.12e+06u l=150000u
X1 a_454_503# a_206_368# a_561_463# VPB sky130_fd_pr__pfet_01v8 w=420000u l=150000u
X2 a_1118_508# a_1210_314# VPWR VPB sky130_fd_pr__pfet_01v8 w=420000u l=150000u
X3 VPWR a_561_463# a_713_458# VPB sky130_fd_pr__pfet_01v8 w=840000u l=150000u
X4 a_1210_314# a_1011_424# VPWR VPB sky130_fd_pr__pfet_01v8 w=840000u l=150000u
X5 VPWR a_1210_314# Q VPB sky130_fd_pr__pfet_01v8 w=1.12e+06u l=150000u
X6 VGND a_1210_314# Q VNB sky130_fd_pr__nfet_01v8_lvt w=740000u l=150000u
X7 a_561_463# a_27_74# a_668_503# VPB sky130_fd_pr__pfet_01v8 w=420000u l=150000u
X8 a_1210_314# a_1011_424# VGND VNB sky130_fd_pr__nfet_01v8_lvt w=640000u l=150000u
X9 a_561_463# a_206_368# a_731_101# VNB sky130_fd_pr__nfet_01v8_lvt w=420000u l=150000u
X10 VGND D a_454_503# VNB sky130_fd_pr__nfet_01v8_lvt w=420000u l=150000u
X11 a_1011_424# a_27_74# a_1168_124# VNB sky130_fd_pr__nfet_01v8_lvt w=420000u l=150000u
X12 a_1011_424# a_206_368# a_1118_508# VPB sky130_fd_pr__pfet_01v8 w=420000u l=150000u
X13 a_668_503# a_713_458# VPWR VPB sky130_fd_pr__pfet_01v8 w=420000u l=150000u
X14 a_1168_124# a_1210_314# VGND VNB sky130_fd_pr__nfet_01v8_lvt w=420000u l=150000u
X15 VPWR a_27_74# a_206_368# VPB sky130_fd_pr__pfet_01v8 w=1.12e+06u l=150000u
X16 VGND a_27_74# a_206_368# VNB sky130_fd_pr__nfet_01v8_lvt w=740000u l=150000u
X17 VGND a_561_463# a_713_458# VNB sky130_fd_pr__nfet_01v8_lvt w=550000u l=150000u
X18 a_713_458# a_27_74# a_1011_424# VPB sky130_fd_pr__pfet_01v8 w=840000u l=150000u
X19 a_731_101# a_713_458# VGND VNB sky130_fd_pr__nfet_01v8_lvt w=420000u l=150000u
X20 a_713_458# a_206_368# a_1011_424# VNB sky130_fd_pr__nfet_01v8_lvt w=550000u l=150000u
X21 VPWR D a_454_503# VPB sky130_fd_pr__pfet_01v8 w=420000u l=150000u
X22 a_454_503# a_27_74# a_561_463# VNB sky130_fd_pr__nfet_01v8_lvt w=420000u l=150000u
X23 a_27_74# CLK VGND VNB sky130_fd_pr__nfet_01v8_lvt w=740000u l=150000u
.ends

******_____________ sky130_fd_sc_ms_____________******

** sky130_fd_sc_ms__buf
.subckt sky130_fd_sc_ms__buf_1 A VGND VNB VPB VPWR X
X0 VGND a_27_164# X VNB sky130_fd_pr__nfet_01v8_lvt w=740000u l=150000u
X1 a_27_164# A VGND VNB sky130_fd_pr__nfet_01v8_lvt w=550000u l=150000u
X2 a_27_164# A VPWR VPB sky130_fd_pr__pfet_01v8 w=840000u l=180000u
X3 VPWR a_27_164# X VPB sky130_fd_pr__pfet_01v8 w=1.12e+06u l=180000u
.ends

.subckt sky130_fd_sc_ms__buf_2 A VGND VNB VPB VPWR X
X0 X a_21_260# VPWR VPB sky130_fd_pr__pfet_01v8 w=1.12e+06u l=180000u
X1 VGND A a_21_260# VNB sky130_fd_pr__nfet_01v8_lvt w=640000u l=150000u
X2 VGND a_21_260# X VNB sky130_fd_pr__nfet_01v8_lvt w=740000u l=150000u
X3 VPWR a_21_260# X VPB sky130_fd_pr__pfet_01v8 w=1.12e+06u l=180000u
X4 VPWR A a_21_260# VPB sky130_fd_pr__pfet_01v8 w=1e+06u l=180000u
X5 X a_21_260# VGND VNB sky130_fd_pr__nfet_01v8_lvt w=740000u l=150000u
.ends

.subckt sky130_fd_sc_ms__buf_4 A VGND VNB VPB VPWR X
X0 VPWR a_86_260# X VPB sky130_fd_pr__pfet_01v8 w=1.12e+06u l=180000u
X1 VGND a_86_260# X VNB sky130_fd_pr__nfet_01v8_lvt w=740000u l=150000u
X2 VPWR A a_86_260# VPB sky130_fd_pr__pfet_01v8 w=840000u l=180000u
X3 VPWR a_86_260# X VPB sky130_fd_pr__pfet_01v8 w=1.12e+06u l=180000u
X4 VGND A a_86_260# VNB sky130_fd_pr__nfet_01v8_lvt w=740000u l=150000u
X5 X a_86_260# VGND VNB sky130_fd_pr__nfet_01v8_lvt w=740000u l=150000u
X6 VGND a_86_260# X VNB sky130_fd_pr__nfet_01v8_lvt w=740000u l=150000u
X7 X a_86_260# VPWR VPB sky130_fd_pr__pfet_01v8 w=1.12e+06u l=180000u
X8 a_86_260# A VPWR VPB sky130_fd_pr__pfet_01v8 w=840000u l=180000u
X9 X a_86_260# VPWR VPB sky130_fd_pr__pfet_01v8 w=1.12e+06u l=180000u
X10 X a_86_260# VGND VNB sky130_fd_pr__nfet_01v8_lvt w=740000u l=150000u
.ends

.subckt sky130_fd_sc_ms__buf_8 A VGND VNB VPB VPWR X
X0 VPWR A a_27_74# VPB sky130_fd_pr__pfet_01v8 w=1.12e+06u l=180000u
X1 X a_27_74# VGND VNB sky130_fd_pr__nfet_01v8_lvt w=740000u l=150000u
X2 X a_27_74# VPWR VPB sky130_fd_pr__pfet_01v8 w=1.12e+06u l=180000u
X3 VGND A a_27_74# VNB sky130_fd_pr__nfet_01v8_lvt w=740000u l=150000u
X4 VPWR a_27_74# X VPB sky130_fd_pr__pfet_01v8 w=1.12e+06u l=180000u
X5 X a_27_74# VPWR VPB sky130_fd_pr__pfet_01v8 w=1.12e+06u l=180000u
X6 VGND a_27_74# X VNB sky130_fd_pr__nfet_01v8_lvt w=740000u l=150000u
X7 VPWR a_27_74# X VPB sky130_fd_pr__pfet_01v8 w=1.12e+06u l=180000u
X8 X a_27_74# VPWR VPB sky130_fd_pr__pfet_01v8 w=1.12e+06u l=180000u
X9 a_27_74# A VGND VNB sky130_fd_pr__nfet_01v8_lvt w=740000u l=150000u
X10 VGND a_27_74# X VNB sky130_fd_pr__nfet_01v8_lvt w=740000u l=150000u
X11 a_27_74# A VPWR VPB sky130_fd_pr__pfet_01v8 w=1.12e+06u l=180000u
X12 X a_27_74# VGND VNB sky130_fd_pr__nfet_01v8_lvt w=740000u l=150000u
X13 X a_27_74# VGND VNB sky130_fd_pr__nfet_01v8_lvt w=740000u l=150000u
X14 VPWR a_27_74# X VPB sky130_fd_pr__pfet_01v8 w=1.12e+06u l=180000u
X15 a_27_74# A VPWR VPB sky130_fd_pr__pfet_01v8 w=1.12e+06u l=180000u
X16 VPWR a_27_74# X VPB sky130_fd_pr__pfet_01v8 w=1.12e+06u l=180000u
X17 VGND a_27_74# X VNB sky130_fd_pr__nfet_01v8_lvt w=740000u l=150000u
X18 X a_27_74# VPWR VPB sky130_fd_pr__pfet_01v8 w=1.12e+06u l=180000u
X19 VGND a_27_74# X VNB sky130_fd_pr__nfet_01v8_lvt w=740000u l=150000u
X20 X a_27_74# VGND VNB sky130_fd_pr__nfet_01v8_lvt w=740000u l=150000u
X21 a_27_74# A VGND VNB sky130_fd_pr__nfet_01v8_lvt w=740000u l=150000u
.ends

.subckt sky130_fd_sc_ms__buf_16 A VGND VNB VPB VPWR X
X0 X a_83_260# VGND VNB sky130_fd_pr__nfet_01v8_lvt w=740000u l=150000u
X1 X a_83_260# VPWR VPB sky130_fd_pr__pfet_01v8 w=1.12e+06u l=180000u
X2 X a_83_260# VPWR VPB sky130_fd_pr__pfet_01v8 w=1.12e+06u l=180000u
X3 X a_83_260# VGND VNB sky130_fd_pr__nfet_01v8_lvt w=740000u l=150000u
X4 X a_83_260# VPWR VPB sky130_fd_pr__pfet_01v8 w=1.12e+06u l=180000u
X5 X a_83_260# VPWR VPB sky130_fd_pr__pfet_01v8 w=1.12e+06u l=180000u
X6 VPWR a_83_260# X VPB sky130_fd_pr__pfet_01v8 w=1.12e+06u l=180000u
X7 a_83_260# A VPWR VPB sky130_fd_pr__pfet_01v8 w=1.12e+06u l=180000u
X8 VGND a_83_260# X VNB sky130_fd_pr__nfet_01v8_lvt w=740000u l=150000u
X9 VGND a_83_260# X VNB sky130_fd_pr__nfet_01v8_lvt w=740000u l=150000u
X10 VGND a_83_260# X VNB sky130_fd_pr__nfet_01v8_lvt w=740000u l=150000u
X11 X a_83_260# VPWR VPB sky130_fd_pr__pfet_01v8 w=1.12e+06u l=180000u
X12 a_83_260# A VPWR VPB sky130_fd_pr__pfet_01v8 w=1.12e+06u l=180000u
X13 X a_83_260# VPWR VPB sky130_fd_pr__pfet_01v8 w=1.12e+06u l=180000u
X14 VGND a_83_260# X VNB sky130_fd_pr__nfet_01v8_lvt w=740000u l=150000u
X15 VGND A a_83_260# VNB sky130_fd_pr__nfet_01v8_lvt w=740000u l=150000u
X16 X a_83_260# VPWR VPB sky130_fd_pr__pfet_01v8 w=1.12e+06u l=180000u
X17 X a_83_260# VGND VNB sky130_fd_pr__nfet_01v8_lvt w=740000u l=150000u
X18 VPWR a_83_260# X VPB sky130_fd_pr__pfet_01v8 w=1.12e+06u l=180000u
X19 X a_83_260# VPWR VPB sky130_fd_pr__pfet_01v8 w=1.12e+06u l=180000u
X20 X a_83_260# VGND VNB sky130_fd_pr__nfet_01v8_lvt w=740000u l=150000u
X21 X a_83_260# VGND VNB sky130_fd_pr__nfet_01v8_lvt w=740000u l=150000u
X22 VGND A a_83_260# VNB sky130_fd_pr__nfet_01v8_lvt w=740000u l=150000u
X23 VPWR a_83_260# X VPB sky130_fd_pr__pfet_01v8 w=1.12e+06u l=180000u
X24 VPWR a_83_260# X VPB sky130_fd_pr__pfet_01v8 w=1.12e+06u l=180000u
X25 VGND a_83_260# X VNB sky130_fd_pr__nfet_01v8_lvt w=740000u l=150000u
X26 a_83_260# A VGND VNB sky130_fd_pr__nfet_01v8_lvt w=740000u l=150000u
X27 VPWR a_83_260# X VPB sky130_fd_pr__pfet_01v8 w=1.12e+06u l=180000u